*MODEL, NAME=OPENCAE_MONITOR_ALL_LOADCASES
*NODE, NSET=NALL
1, 0, 0, 0
2, 100, 0, 0
3, 100, 50, 0
4, 0, 50, 0
5, 0, 0, 20
6, 100, 0, 20
7, 100, 50, 20
8, 0, 50, 20
*ELEMENT, TYPE=C3D8, ELSET=SOLID
1, 1, 2, 3, 4, 5, 6, 7, 8
*NSET, NAME=ROOT
1, 4, 5, 8
*NSET, NAME=TIP
2, 3, 6, 7
*NSET, NAME=ALLNODES
1, 2, 3, 4, 5, 6, 7, 8
*MATERIAL, NAME=STEEL
*ELASTIC, TYPE=ISOTROPIC
210000.0, 0.3
*DENSITY
7.85e-9
*SOLIDSECTION, ELSET=SOLID, MATERIAL=STEEL
*FIELD, NAME=DENSITY_FIELD, TYPE=ELEMENT, COLS=1
1, 0.8
*FIELD, NAME=ORIENT_FIELD, TYPE=ELEMENT, COLS=3
1, 0.0, 0.0, 0.0
*SUPPORT, SUPPORT_COLLECTOR=BC
ROOT, 0.0, 0.0, 0.0, NAN, NAN, NAN
*CLOAD, LOAD_COLLECTOR=STATIC_Z
TIP, 0.0, 0.0, -1000.0, 0.0, 0.0, 0.0
*CLOAD, LOAD_COLLECTOR=PRELOAD_X
TIP, -500.0, 0.0, 0.0, 0.0, 0.0, 0.0
*CLOAD, LOAD_COLLECTOR=DYNAMIC_Z
TIP, 0.0, 0.0, -100.0, 0.0, 0.0, 0.0

*LOADCASE, TYPE=LINEARSTATIC, NAME=LC_01_LINEAR_STATIC
*SUPPORTS
BC
*LOADS
STATIC_Z
*SOLVER, DEVICE=CPU, METHOD=DIRECT
*CONSTRAINTMETHOD, TYPE=NULLSPACE
*END

*LOADCASE, TYPE=NONLINEARSTATIC, NAME=LC_02_NONLINEAR_STATIC
*SUPPORTS
BC
*LOADS
STATIC_Z
*SOLVER, DEVICE=CPU, METHOD=DIRECT
*CONSTRAINTMETHOD, TYPE=NULLSPACE
*NONLINEAR, CONTROL=LOAD, INCREMENTS=5, MAX_INCREMENTS=30, MAXITER=25, TOL=1e-8, REGULARIZE_ZERO_ROWS=ON
*END

*LOADCASE, TYPE=LINEARBUCKLING, NAME=LC_03_LINEAR_BUCKLING
*SUPPORTS
BC
*LOADS
PRELOAD_X
*NUMEIGENVALUES
3
*SIGMA
0.0
*END

*LOADCASE, TYPE=LINEARSTATICTOPO, NAME=LC_04_LINEAR_STATIC_TOPO
*SUPPORTS
BC
*LOADS
STATIC_Z
*SOLVER, DEVICE=CPU, METHOD=DIRECT
*CONSTRAINTMETHOD, TYPE=NULLSPACE
*TOPODENSITY, FIELD=DENSITY_FIELD
*TOPOORIENT, FIELD=ORIENT_FIELD
*TOPOEXPONENT
3.0
*END

*LOADCASE, TYPE=EIGENFREQ, NAME=LC_05_EIGENFREQ
*SUPPORTS
BC
*NUMEIGENVALUES
3
*END

*LOADCASE, TYPE=LINEARTRANSIENT, NAME=LC_06_LINEAR_TRANSIENT
*SUPPORTS
BC
*LOADS
DYNAMIC_Z
*SOLVER, DEVICE=CPU, METHOD=DIRECT
*CONSTRAINTMETHOD, TYPE=NULLSPACE
*TIME
0.0, 0.01, 0.002
*NEWMARK
0.25, 0.5
*DAMPING, TYPE=RAYLEIGH
0.0, 1.0e-5
*WRITEEVERY, TYPE=STEPS
1
*END

*LOADCASE, TYPE=LINEARHARMONIC, NAME=LC_07_LINEAR_HARMONIC
*SUPPORTS
BC
*LOADS
DYNAMIC_Z
*SOLVER, DEVICE=CPU, METHOD=DIRECT
*CONSTRAINTMETHOD, TYPE=NULLSPACE
*FREQUENCIES, SCALE=LINEAR
10.0, 500.0, 11
*DAMPING, TYPE=RAYLEIGH
0.0, 1.0e-5
*END
